[root]
type=Root
children=system
eventq_index=0
full_system=false
sim_quantum=0
time_sync_enable=false
time_sync_period=100000000000
time_sync_spin_threshold=100000000

[system]
type=System
children=clk_domain cpu cpu_clk_domain cpu_voltage_domain dvfs_handler mem_ctrls membus redirect_paths0 redirect_paths1 redirect_paths2 voltage_domain
byte_order=little
cache_line_size=64
eventq_index=0
exit_on_work_items=false
init_param=0
kvm_vm=Null
m5ops_base=4294901760
mem_mode=atomic
mem_ranges=0:8589934592
memories=system.mem_ctrls
mmap_using_noreserve=false
multi_thread=false
num_work_ids=16
readfile=
redirect_paths=system.redirect_paths0 system.redirect_paths1 system.redirect_paths2
shadow_rom_ranges=
shared_backstore=
symbolfile=
thermal_components=
thermal_model=Null
work_begin_ckpt_count=0
work_begin_cpu_id_exit=-1
work_begin_exit_count=0
work_cpus_ckpt_count=0
work_end_ckpt_count=0
work_end_exit_count=0
work_item_id=-1
workload=Null
system_port=system.membus.cpu_side_ports[0]

[system.clk_domain]
type=SrcClockDomain
clock=1000
domain_id=-1
eventq_index=0
init_perf_level=0
voltage_domain=system.voltage_domain

[system.cpu]
type=AtomicSimpleCPU
children=interrupts isa mmu power_state tracer workload
branchPred=Null
checker=Null
clk_domain=system.cpu_clk_domain
cpu_id=0
do_checkpoint_insts=true
do_statistics_insts=true
eventq_index=0
function_trace=false
function_trace_start=0
interrupts=system.cpu.interrupts
isa=system.cpu.isa
max_insts_all_threads=0
max_insts_any_thread=100000
mmu=system.cpu.mmu
numThreads=1
power_gating_on_idle=false
power_model=
power_state=system.cpu.power_state
progress_interval=333333333
pwr_gating_latency=300
simpoint_start_insts=
simulate_data_stalls=false
simulate_inst_stalls=false
socket_id=0
switched_out=false
syscallRetryLatency=10000
system=system
tracer=system.cpu.tracer
width=1
workload=system.cpu.workload
dcache_port=system.membus.cpu_side_ports[2]
icache_port=system.membus.cpu_side_ports[1]

[system.cpu.interrupts]
type=X86LocalApic
children=clk_domain
clk_domain=system.cpu.interrupts.clk_domain
eventq_index=0
int_latency=1000
pio_latency=100000
system=system
int_requestor=system.membus.cpu_side_ports[5]
int_responder=system.membus.mem_side_ports[1]
pio=system.membus.mem_side_ports[0]

[system.cpu.interrupts.clk_domain]
type=DerivedClockDomain
clk_divider=16
clk_domain=system.cpu_clk_domain
eventq_index=0

[system.cpu.isa]
type=X86ISA
eventq_index=0
vendor_string=M5 Simulator

[system.cpu.mmu]
type=X86MMU
children=dtb itb
dtb=system.cpu.mmu.dtb
eventq_index=0
itb=system.cpu.mmu.itb

[system.cpu.mmu.dtb]
type=X86TLB
children=walker
eventq_index=0
size=64
system=system
walker=system.cpu.mmu.dtb.walker

[system.cpu.mmu.dtb.walker]
type=X86PagetableWalker
children=power_state
clk_domain=system.cpu_clk_domain
eventq_index=0
num_squash_per_cycle=4
power_model=
power_state=system.cpu.mmu.dtb.walker.power_state
system=system
port=system.membus.cpu_side_ports[4]

[system.cpu.mmu.dtb.walker.power_state]
type=PowerState
clk_gate_bins=20
clk_gate_max=1000000000000
clk_gate_min=1000
default_state=UNDEFINED
eventq_index=0
leaders=
possible_states=

[system.cpu.mmu.itb]
type=X86TLB
children=walker
eventq_index=0
size=64
system=system
walker=system.cpu.mmu.itb.walker

[system.cpu.mmu.itb.walker]
type=X86PagetableWalker
children=power_state
clk_domain=system.cpu_clk_domain
eventq_index=0
num_squash_per_cycle=4
power_model=
power_state=system.cpu.mmu.itb.walker.power_state
system=system
port=system.membus.cpu_side_ports[3]

[system.cpu.mmu.itb.walker.power_state]
type=PowerState
clk_gate_bins=20
clk_gate_max=1000000000000
clk_gate_min=1000
default_state=UNDEFINED
eventq_index=0
leaders=
possible_states=

[system.cpu.power_state]
type=PowerState
clk_gate_bins=20
clk_gate_max=1000000000000
clk_gate_min=1000
default_state=UNDEFINED
eventq_index=0
leaders=
possible_states=ON CLK_GATED OFF

[system.cpu.tracer]
type=ExeTracer
eventq_index=0

[system.cpu.workload]
type=Process
cmd=perlbench_r_base.mytest-m64 -I./lib checkspam.pl 2500 5 25 11 150 1 1 1 1
cwd=/localhome/ygk1/spec2017/benchspec/CPU/500.perlbench_r/run/run_base_refrate_mytest-m64.0000
drivers=
egid=100
env=
errout=/localhome/ygk1/gem5/output/multiprogram_8Gmem_100K.C1/checkpoint_out/perlbench/perlbench.err_0
euid=100
eventq_index=0
executable=perlbench_r_base.mytest-m64
gid=100
input=cin
kvmInSE=false
maxStackSize=67108864
output=/localhome/ygk1/gem5/output/multiprogram_8Gmem_100K.C1/checkpoint_out/perlbench/perlbench.out_0
pgid=100
pid=100
ppid=0
release=5.1.0
simpoint=0
system=system
uid=100
useArchPT=false

[system.cpu_clk_domain]
type=SrcClockDomain
clock=333
domain_id=-1
eventq_index=0
init_perf_level=0
voltage_domain=system.cpu_voltage_domain

[system.cpu_voltage_domain]
type=VoltageDomain
eventq_index=0
voltage=1.0

[system.dvfs_handler]
type=DVFSHandler
domains=
enable=false
eventq_index=0
sys_clk_domain=system.clk_domain
transition_latency=100000000

[system.mem_ctrls]
type=SimpleMemory
children=power_state
bandwidth=73.000000
clk_domain=system.clk_domain
conf_table_reported=true
eventq_index=0
image_file=
in_addr_map=true
kvm_map=true
latency=30000
latency_var=0
null=false
power_model=
power_state=system.mem_ctrls.power_state
range=0:8589934592
port=system.membus.mem_side_ports[2]

[system.mem_ctrls.power_state]
type=PowerState
clk_gate_bins=20
clk_gate_max=1000000000000
clk_gate_min=1000
default_state=UNDEFINED
eventq_index=0
leaders=
possible_states=

[system.membus]
type=CoherentXBar
children=power_state snoop_filter
clk_domain=system.clk_domain
eventq_index=0
forward_latency=4
frontend_latency=3
header_latency=1
max_outstanding_snoops=512
max_routing_table_size=512
point_of_coherency=true
point_of_unification=true
power_model=
power_state=system.membus.power_state
response_latency=2
snoop_filter=system.membus.snoop_filter
snoop_response_latency=4
system=system
use_default_range=false
width=16
cpu_side_ports=system.system_port system.cpu.icache_port system.cpu.dcache_port system.cpu.mmu.itb.walker.port system.cpu.mmu.dtb.walker.port system.cpu.interrupts.int_requestor
mem_side_ports=system.cpu.interrupts.pio system.cpu.interrupts.int_responder system.mem_ctrls.port

[system.membus.power_state]
type=PowerState
clk_gate_bins=20
clk_gate_max=1000000000000
clk_gate_min=1000
default_state=UNDEFINED
eventq_index=0
leaders=
possible_states=

[system.membus.snoop_filter]
type=SnoopFilter
eventq_index=0
lookup_latency=1
max_capacity=8388608
system=system

[system.redirect_paths0]
type=RedirectPath
app_path=/proc
eventq_index=0
host_paths=/localhome/ygk1/gem5/output/multiprogram_8Gmem_100K.C1/checkpoint_out/perlbench/fs/proc

[system.redirect_paths1]
type=RedirectPath
app_path=/sys
eventq_index=0
host_paths=/localhome/ygk1/gem5/output/multiprogram_8Gmem_100K.C1/checkpoint_out/perlbench/fs/sys

[system.redirect_paths2]
type=RedirectPath
app_path=/tmp
eventq_index=0
host_paths=/localhome/ygk1/gem5/output/multiprogram_8Gmem_100K.C1/checkpoint_out/perlbench/fs/tmp

[system.voltage_domain]
type=VoltageDomain
eventq_index=0
voltage=1.0

